# CIF file
# This file was generated by FINDSYM
# Harold T. Stokes, Branton J. Campbell, Dorian M. Hatch
# Brigham Young University, Provo, Utah, USA
 
data_findsym-output
_audit_creation_method FINDSYM
 
_symmetry_space_group_name_H-M "P 1 21/c 1"
_symmetry_Int_Tables_number 14
 
_cell_length_a    7.74362
_cell_length_b    5.54120
_cell_length_c    5.62917
_cell_angle_alpha 90.00000
_cell_angle_beta  90.15298
_cell_angle_gamma 90.00000
 
loop_
_space_group_symop_id
_space_group_symop_operation_xyz
1 x,y,z
2 -x,y+1/2,-z+1/2
3 -x,-y,-z
4 x,-y+1/2,z+1/2
 
loop_
_atom_site_label
_atom_site_type_symbol
_atom_site_symmetry_multiplicity
_atom_site_Wyckoff_label
_atom_site_fract_x
_atom_site_fract_y
_atom_site_fract_z
_atom_site_occupancy
La1 La   4 e 0.24987 0.48946 0.04323 1.00000
V1  V    2 a 0.00000 0.00000 0.00000 1.00000
V2  V    2 b 0.50000 0.00000 0.00000 1.00000
O1  O    4 e 0.25015 0.57937 0.48447 1.00000
O2  O    4 e 0.04240 0.20607 0.28497 1.00000
O3  O    4 e 0.54298 0.78627 0.70576 1.00000
